finish
/clear
/prep7


!**********************************机翼的节点******************
n,1,503.5716,-4.939e-09,78.77212
n,2,503.5716,100.0,78.77212
n,3,503.5716,200.0,78.77212
n,4,503.5716,300.0,78.77212
n,5,503.5716,400.0,78.77212
n,6,503.5716,500.0,78.77212
n,7,503.5716,600.0,78.77212
n,8,503.5716,700.0,78.77212
n,9,503.5716,800.0,78.77212
n,10,503.5716,900.0,78.77212
n,11,503.5716,1000.0,78.77212
n,12,503.5716,1100.0,78.77212
n,13,503.5716,1200.0,78.77212
n,14,503.5716,1300.0,78.77212
n,15,503.5716,1400.0,78.77212
n,16,503.5716,1500.0,78.77212
n,17,503.5716,1600.0,78.77212
n,18,503.5716,1700.0,78.77212
n,19,503.5716,1800.0,78.77212
n,20,503.5716,1900.0,78.77212
! ... 1810 like lines cut


!*******************************夹具的节点***********************
n,1831,-877.503,-220.0,-95.5413
n,1832,-820.96,-220.0,-176.21
n,1833,-746.542,-220.0,-240.163
n,1834,-662.137,-220.0,-291.238
n,1835,-572.247,-220.0,-331.886
n,1836,-479.797,-220.0,-363.8
n,1837,-385.95,-220.0,-388.454
n,1838,-290.913,-220.0,-406.916
n,1839,-194.804,-220.0,-419.806
n,1840,-97.6881,-220.0,-427.459
n,1841,0.2647629,-220.0,-430.0
n,1842,97.84446,-220.0,-427.451
n,1843,194.7797,-220.0,-419.809
n,1844,291.0479,-220.0,-406.894
n,1845,386.5984,-220.0,-388.307
n,1846,481.3408,-220.0,-363.334
n,1847,573.9891,-220.0,-331.199
n,1848,662.9261,-220.0,-290.828
n,1849,746.9885,-220.0,-239.846
n,1850,821.3088,-220.0,-175.84
! ... 431 like lines cut


!******************************加载系统的节点***************
n,2282,256.5636,4851.518,551.7368
n,2283,256.5269,5491.288,549.267
n,2284,-225.037,5489.844,552.5506
n,2285,-252.369,4848.492,552.8359
n,2286,256.5636,5011.518,551.7368
n,2287,256.5636,4691.518,551.7368
n,2288,256.5269,5331.288,549.267
n,2289,256.5269,5651.288,549.267
n,2290,-225.037,5329.844,552.5506
n,2291,-225.037,5649.844,552.5506
n,2292,-252.369,5008.492,552.8359
n,2293,-252.369,4688.492,552.8359
n,2294,236.867,4831.68,1036.761
n,2295,237.8142,5471.578,1036.761
n,2296,-232.185,5471.423,1036.761
n,2297,-237.019,4834.097,1040.959
n,2298,4.59986,5204.702,5049.497
n,2299,-0.07608,4832.888,1038.86
n,2300,2.814255,5471.5,1036.761
n,2301,1.369087,5152.194,1037.81
! ... 12 like lines cut


!n,2314,-241.5,5000.0,144.7657
!n,2315,241.5,5000.0,144.7649
!n,2316,241.5,4700.0,144.7649
!n,2317,-241.5,4700.0,144.7657
!n,2318,-6.1163,-16.6666,1.162706


!***********************机翼面单元的属性（1为编号）*****************
et,1,shell181
!***********************机翼的材料密度（1为编号）*****************
mp,dens,1,2700
!***********************机翼的材料弹性模量（1为编号）*****************
mp,ex,1,70e9
!***********************机翼的材料泊松比（1为编号）*****************
mp,prxy,1,0.3
!***********************机翼面单元厚度属性（1为编号）*****************
r,1,0.5

!***********************1与et的编号关联*****************
type,1
!***********************1与mp的编号关联*****************
mat,1
!***********************1与r的编号关联*****************
real,1


!***********************机翼面单元*****************
e,144,147,149,143
e,143,149,68,69
e,65,150,148,64
e,150,149,147,148
e,66,67,150,65
e,67,68,149,150
e,145,151,147,144
e,151,152,148,147
e,152,63,64,148
e,58,59,153,146
e,146,153,151,145
e,59,60,154,153
e,153,154,152,151
e,60,61,62,154
e,154,62,63,152
e,158,159,155,156
e,159,139,140,155
e,71,72,159,158
e,72,73,139,159
e,143,160,157,144
! ... 1900 like lines cut


!***********************夹具实体单元的属性et（2为编号）*****************
et,2,solid185
!***********************夹具实体单元的材料mp（2为编号）依次为密度、弹性模量、泊松比*****************
mp,dens,2,2700
mp,ex,2,70e9
mp,prxy,2,0.3
!***********************夹具实体单元的属性r（2为编号）*****************
r,2

!***********************2是夹具实体单元的属性et的编号*****************
type,2
!***********************2是夹具实体单元的材料mp的编号*****************
mat,2
!***********************2是夹具实体单元的属性r的编号*****************
real,2


!***********************夹具实体单元**********************
e,1876,1875,1861,1860,1984,1981,1982,1983
e,1877,1876,1860,1859,1986,1984,1983,1985
e,1878,1877,1859,1858,1988,1986,1985,1987
e,1879,1878,1858,1857,1990,1988,1987,1989
e,1880,1879,1857,1856,1992,1990,1989,1991
e,1881,1880,1856,1855,1994,1992,1991,1993
e,1882,1881,1855,1854,1996,1994,1993,1995
e,1883,1882,1854,1852,1998,1996,1995,1997
e,1884,1883,1852,1851,2000,1998,1997,1999
e,1885,1884,1851,1850,2002,2000,1999,2001
e,1886,1885,1850,1849,2004,2002,2001,2003
e,1887,1886,1849,1848,2006,2004,2003,2005
e,1888,1887,1848,1847,2008,2006,2005,2007
e,1889,1888,1847,1846,2010,2008,2007,2009
e,1890,1889,1846,1845,2012,2010,2009,2011
e,1891,1890,1845,1844,2014,2012,2011,2013
e,1892,1891,1844,1843,2016,2014,2013,2015
e,1893,1892,1843,1842,2018,2016,2015,2017
e,1894,1893,1842,1841,2020,2018,2017,2019
e,1895,1894,1841,1840,2022,2020,2019,2021
! ... 228 like lines cut

!***********************加载系统横梁单元的属性et（3为编号）*****************
et,3,beam188
!***********************加载系统横梁单元的材料mp（3为编号）依次为密度、弹性模量、泊松比*****************
mp,dens,3,2700
mp,ex,3,70e9
mp,prxy,3,0.3
!***********************加载系统横梁单元的属性sectype（3为编号）*****************
sectype,3,beam,hrec
secdata,100,100,10,10,10,10

!***********************3是加载系统横梁单元的属性et的编号*****************
type,3
!***********************3是加载系统横梁单元的材料的编号*****************
mat,3
!***********************3是加载系统横梁单元的属性sectype的编号*****************
secnum,3

!***********************加载系统横梁单元*****************
e,2294,2299
e,2299,2297
e,2295,2300
e,2300,2296
e,2299,2301
e,2301,2300
e,2293,2285
e,2285,2292
e,2290,2284
e,2284,2291
e,2287,2282
e,2282,2286
e,2288,2283
e,2283,2289


!***********************加载系统纵梁单元的属性et（5为编号）*****************
et,5,beam188
!***********************加载系统纵梁单元的材料mp（5为编号）依次为密度、弹性模量、泊松比*****************
mp,dens,5,2700
mp,ex,5,70e9
mp,prxy,5,0.3
!***********************加载系统纵梁单元的属性sectype（5为编号）*****************
sectype,5,beam,csolid
secdata,10

!***********************5是加载系统纵梁单元的属性et的编号*****************
type,5
!***********************5是加载系统纵梁单元的材料的编号*****************
mat,5
!***********************5是加载系统纵梁单元的属性sectype的编号*****************
secnum,5

!***********************加载系统横梁单元*****************
e,2291,2305
e,2290,2302
e,2289,2304
e,2288,2303
e,2293,2310
e,2292,2311
e,2287,2313
e,2286,2312
e,2297,2285
e,2294,2282
e,2296,2284
e,2295,2283


!***********************加载系统钢绳单元的属性et（4为编号）*****************
et,4,link180
!***********************加载系统钢绳单元的材料mp（4为编号）依次为密度、弹性模量、泊松比*****************
mp,dens,4,2700
mp,ex,4,70e9
mp,prxy,4,0.3
!***********************加载系统钢绳单元的属性r（4为编号）*****************
r,4,1e-06,0,0

!***********************4是加载系统钢绳单元的属性et的编号*****************
type,4
!***********************4是加载系统钢绳单元的材料mp的编号*****************
mat,4
!***********************4是加载系统钢绳单元的属性r的编号*****************
real,4

!***********************加载系统钢绳单元*****************
e,2301,2298

allsel,all

!****************生成连接单元********************
!***************ux,uy,uz,rotx,roty,rotz******
!***************1为主节点，其他为从节点，节点最多17个，后面不再识别，超过17个节点，需要定义另外一个连接cp******
cp,100001,all,1,2,3,4,5,6,7,8,9,10,11,12,13,14,15,16,17
allsel,all

!****************约束设置********************
!***************ux,uy,uz,rotx,roty,rotz******
d,2298,all
d,2298,ux
allsel,all

!****************加载设置********************
!***************fx,fy,fz,mx,my,mz****************************
f,2301,fz,50000
allsel,all

eplot
finish


!****************求解设置 ********************
/sol
!****************0 代表静力计算类型 ********************
antype,0
/status,solu
solve
finish


!****************后处理输出设置********************
/post1
/efacet,1
!****************输出位移结果********************
prnsol,u,comp
!****************输出单元力结果********************
presol,f
finish
